opendss_helics_examples/network_model/model_base.dss
clear
new Circuit.source phases=3 bus1=sourcebus basekv=115.000 pu=1.00000 angle=30.00000 r0=0.17960 x0=0.53881 r1=0.16038 x1=0.64151





new Linecode.1p_ug_code4 nphases=1 units=mi rmatrix=[0.405129 ] xmatrix=[0.410707 ] cmatrix=[3.65361 ]
new Linecode.2p_code10 nphases=2 units=mi rmatrix=[0.139473 | 0.0467855 0.140661 ] xmatrix=[0.328565 | 0.117314 0.324634 ] cmatrix=[4.13553 | -0.852831 4.17999 ]
new Linecode.2p_oh_code0 nphases=2 units=mi rmatrix=[0.139473 | 0.0467855 0.140661 ] xmatrix=[0.328565 | 0.117314 0.324634 ] cmatrix=[4.13553 | -0.852831 4.17999 ]
new Linecode.3p_oh_code6 nphases=3 units=mi rmatrix=[0.139473 | 0.0475475 0.142216 | 0.0467855 0.0481571 0.140661 ] xmatrix=[0.328565 | 0.152914 0.319483 | 0.117314 0.129110 0.324634 ] cmatrix=[4.58915 | -1.48099 4.83524 | -0.564458 -0.941436 4.36327 ]
new Linecode.3p_oh_code1 nphases=3 units=mi rmatrix=[0.139473 | 0.0475475 0.142216 | 0.0467855 0.0481571 0.140661 ] xmatrix=[0.328565 | 0.152914 0.319483 | 0.117314 0.129110 0.324634 ] cmatrix=[4.58915 | -1.48099 4.83524 | -0.564458 -0.941436 4.36327 ]
new Linecode.3p_ug_code5 nphases=3 units=mi rmatrix=[0.139473 | 0.0475475 0.142216 | 0.0467855 0.0481571 0.140661 ] xmatrix=[0.328565 | 0.152914 0.319483 | 0.117314 0.129110 0.324634 ] cmatrix=[4.58915 | -1.48099 4.83524 | -0.564458 -0.941436 4.36327 ]
new Linecode.1p_oh_code3 nphases=1 units=mi rmatrix=[0.405129 ] xmatrix=[0.410707 ] cmatrix=[3.65361 ]
new Linecode.1p_oh_code9 nphases=1 units=mi rmatrix=[0.405129 ] xmatrix=[0.410707 ] cmatrix=[3.65361 ]
new Linecode.1p_oh_code8 nphases=1 units=mi rmatrix=[0.405129 ] xmatrix=[0.410707 ] cmatrix=[3.65361 ]
new Linecode.2p_oh_code2 nphases=2 units=mi rmatrix=[0.139473 | 0.0467855 0.140661 ] xmatrix=[0.328565 | 0.117314 0.324634 ] cmatrix=[4.13553 | -0.852831 4.17999 ]


new Xfmrcode.cimxfmrcode_xfmr_611_c_2 windings=3 phases=1 xhl=2.040000 xht=2.040000 xlt=0.680000 %imag=0.000 %noloadloss=0.000
~ wdg=1 conn=w kv=2.400 kva=40.0 %r=0.003000
~ wdg=2 conn=w kv=0.120 kva=20.0 %r=0.003000
~ wdg=3 conn=w kv=0.120 kva=20.0 %r=0.003000
new Xfmrcode.cimxfmrcode_xfmr_684_c_2 windings=3 phases=1 xhl=2.040000 xht=2.040000 xlt=0.680000 %imag=0.000 %noloadloss=0.000
~ wdg=1 conn=w kv=2.400 kva=40.0 %r=0.003000
~ wdg=2 conn=w kv=0.120 kva=20.0 %r=0.003000
~ wdg=3 conn=w kv=0.120 kva=20.0 %r=0.003000
new Xfmrcode.cimxfmrcode_xfmr_611_c_1 windings=3 phases=1 xhl=2.040000 xht=2.040000 xlt=0.680000 %imag=0.000 %noloadloss=0.000
~ wdg=1 conn=w kv=2.400 kva=40.0 %r=0.003000
~ wdg=2 conn=w kv=0.120 kva=20.0 %r=0.003000
~ wdg=3 conn=w kv=0.120 kva=20.0 %r=0.003000
new Xfmrcode.cimxfmrcode_xfmr_684_c_1 windings=3 phases=1 xhl=2.040000 xht=2.040000 xlt=0.680000 %imag=0.000 %noloadloss=0.000
~ wdg=1 conn=w kv=2.400 kva=40.0 %r=0.003000
~ wdg=2 conn=w kv=0.120 kva=20.0 %r=0.003000
~ wdg=3 conn=w kv=0.120 kva=20.0 %r=0.003000
new Xfmrcode.cimxfmrcode_xfmr_611_c_4 windings=3 phases=1 xhl=2.040000 xht=2.040000 xlt=0.680000 %imag=0.000 %noloadloss=0.000
~ wdg=1 conn=w kv=2.400 kva=40.0 %r=0.003000
~ wdg=2 conn=w kv=0.120 kva=20.0 %r=0.003000
~ wdg=3 conn=w kv=0.120 kva=20.0 %r=0.003000
new Xfmrcode.cimxfmrcode_xfmr_671_a_5 windings=3 phases=1 xhl=2.040000 xht=2.040000 xlt=0.680000 %imag=0.000 %noloadloss=0.000
~ wdg=1 conn=w kv=2.400 kva=40.0 %r=0.003000
~ wdg=2 conn=w kv=0.120 kva=20.0 %r=0.003000
~ wdg=3 conn=w kv=0.120 kva=20.0 %r=0.003000
new Xfmrcode.cimxfmrcode_xfmr_684_c_4 windings=3 phases=1 xhl=2.040000 xht=2.040000 xlt=0.680000 %imag=0.000 %noloadloss=0.000
~ wdg=1 conn=w kv=2.400 kva=40.0 %r=0.003000
~ wdg=2 conn=w kv=0.120 kva=20.0 %r=0.003000
~ wdg=3 conn=w kv=0.120 kva=20.0 %r=0.003000
new Xfmrcode.cimxfmrcode_xfmr_611_c_3 windings=3 phases=1 xhl=2.040000 xht=2.040000 xlt=0.680000 %imag=0.000 %noloadloss=0.000
~ wdg=1 conn=w kv=2.400 kva=40.0 %r=0.003000
~ wdg=2 conn=w kv=0.120 kva=20.0 %r=0.003000
~ wdg=3 conn=w kv=0.120 kva=20.0 %r=0.003000
new Xfmrcode.cimxfmrcode_xfmr_684_c_3 windings=3 phases=1 xhl=2.040000 xht=2.040000 xlt=0.680000 %imag=0.000 %noloadloss=0.000
~ wdg=1 conn=w kv=2.400 kva=40.0 %r=0.003000
~ wdg=2 conn=w kv=0.120 kva=20.0 %r=0.003000
~ wdg=3 conn=w kv=0.120 kva=20.0 %r=0.003000
new Xfmrcode.cimxfmrcode_xfmr_633_b_4 windings=3 phases=1 xhl=2.040000 xht=2.040000 xlt=0.680000 %imag=0.000 %noloadloss=0.000
~ wdg=1 conn=w kv=2.400 kva=40.0 %r=0.003000
~ wdg=2 conn=w kv=0.120 kva=20.0 %r=0.003000
~ wdg=3 conn=w kv=0.120 kva=20.0 %r=0.003000
new Xfmrcode.cimxfmrcode_xfmr_671_a_3 windings=3 phases=1 xhl=2.040000 xht=2.040000 xlt=0.680000 %imag=0.000 %noloadloss=0.000
~ wdg=1 conn=w kv=2.400 kva=40.0 %r=0.003000
~ wdg=2 conn=w kv=0.120 kva=20.0 %r=0.003000
~ wdg=3 conn=w kv=0.120 kva=20.0 %r=0.003000
new Xfmrcode.cimxfmrcode_xfmr_611_c_5 windings=3 phases=1 xhl=2.040000 xht=2.040000 xlt=0.680000 %imag=0.000 %noloadloss=0.000
~ wdg=1 conn=w kv=2.400 kva=40.0 %r=0.003000
~ wdg=2 conn=w kv=0.120 kva=20.0 %r=0.003000
~ wdg=3 conn=w kv=0.120 kva=20.0 %r=0.003000
new Xfmrcode.cimxfmrcode_xfmr_633_b_5 windings=3 phases=1 xhl=2.040000 xht=2.040000 xlt=0.680000 %imag=0.000 %noloadloss=0.000
~ wdg=1 conn=w kv=2.400 kva=40.0 %r=0.003000
~ wdg=2 conn=w kv=0.120 kva=20.0 %r=0.003000
~ wdg=3 conn=w kv=0.120 kva=20.0 %r=0.003000
new Xfmrcode.cimxfmrcode_xfmr_671_a_4 windings=3 phases=1 xhl=2.040000 xht=2.040000 xlt=0.680000 %imag=0.000 %noloadloss=0.000
~ wdg=1 conn=w kv=2.400 kva=40.0 %r=0.003000
~ wdg=2 conn=w kv=0.120 kva=20.0 %r=0.003000
~ wdg=3 conn=w kv=0.120 kva=20.0 %r=0.003000
new Xfmrcode.cimxfmrcode_xfmr_633_b_2 windings=3 phases=1 xhl=2.040000 xht=2.040000 xlt=0.680000 %imag=0.000 %noloadloss=0.000
~ wdg=1 conn=w kv=2.400 kva=40.0 %r=0.003000
~ wdg=2 conn=w kv=0.120 kva=20.0 %r=0.003000
~ wdg=3 conn=w kv=0.120 kva=20.0 %r=0.003000
new Xfmrcode.cimxfmrcode_xfmr_671_a_1 windings=3 phases=1 xhl=2.040000 xht=2.040000 xlt=0.680000 %imag=0.000 %noloadloss=0.000
~ wdg=1 conn=w kv=2.400 kva=40.0 %r=0.003000
~ wdg=2 conn=w kv=0.120 kva=20.0 %r=0.003000
~ wdg=3 conn=w kv=0.120 kva=20.0 %r=0.003000
new Xfmrcode.cimxfmrcode_xfmr_633_b_3 windings=3 phases=1 xhl=2.040000 xht=2.040000 xlt=0.680000 %imag=0.000 %noloadloss=0.000
~ wdg=1 conn=w kv=2.400 kva=40.0 %r=0.003000
~ wdg=2 conn=w kv=0.120 kva=20.0 %r=0.003000
~ wdg=3 conn=w kv=0.120 kva=20.0 %r=0.003000
new Xfmrcode.cimxfmrcode_xfmr_671_a_2 windings=3 phases=1 xhl=2.040000 xht=2.040000 xlt=0.680000 %imag=0.000 %noloadloss=0.000
~ wdg=1 conn=w kv=2.400 kva=40.0 %r=0.003000
~ wdg=2 conn=w kv=0.120 kva=20.0 %r=0.003000
~ wdg=3 conn=w kv=0.120 kva=20.0 %r=0.003000
new Xfmrcode.cimxfmrcode_xfmr_633_b_1 windings=3 phases=1 xhl=2.040000 xht=2.040000 xlt=0.680000 %imag=0.000 %noloadloss=0.000
~ wdg=1 conn=w kv=2.400 kva=40.0 %r=0.003000
~ wdg=2 conn=w kv=0.120 kva=20.0 %r=0.003000
~ wdg=3 conn=w kv=0.120 kva=20.0 %r=0.003000
new Xfmrcode.cimxfmrcode_xfmr_684_c_5 windings=3 phases=1 xhl=2.040000 xht=2.040000 xlt=0.680000 %imag=0.000 %noloadloss=0.000
~ wdg=1 conn=w kv=2.400 kva=40.0 %r=0.003000
~ wdg=2 conn=w kv=0.120 kva=20.0 %r=0.003000
~ wdg=3 conn=w kv=0.120 kva=20.0 %r=0.003000
new Xfmrcode.cimxfmrcode_xfmr_645_b_5 windings=3 phases=1 xhl=2.040000 xht=2.040000 xlt=0.680000 %imag=0.000 %noloadloss=0.000
~ wdg=1 conn=w kv=2.400 kva=40.0 %r=0.003000
~ wdg=2 conn=w kv=0.120 kva=20.0 %r=0.003000
~ wdg=3 conn=w kv=0.120 kva=20.0 %r=0.003000
new Xfmrcode.cimxfmrcode_xfmr_645_b_4 windings=3 phases=1 xhl=2.040000 xht=2.040000 xlt=0.680000 %imag=0.000 %noloadloss=0.000
~ wdg=1 conn=w kv=2.400 kva=40.0 %r=0.003000
~ wdg=2 conn=w kv=0.120 kva=20.0 %r=0.003000
~ wdg=3 conn=w kv=0.120 kva=20.0 %r=0.003000
new Xfmrcode.cimxfmrcode_xfmr_645_b_3 windings=3 phases=1 xhl=2.040000 xht=2.040000 xlt=0.680000 %imag=0.000 %noloadloss=0.000
~ wdg=1 conn=w kv=2.400 kva=40.0 %r=0.003000
~ wdg=2 conn=w kv=0.120 kva=20.0 %r=0.003000
~ wdg=3 conn=w kv=0.120 kva=20.0 %r=0.003000
new Xfmrcode.cimxfmrcode_xfmr_645_b_2 windings=3 phases=1 xhl=2.040000 xht=2.040000 xlt=0.680000 %imag=0.000 %noloadloss=0.000
~ wdg=1 conn=w kv=2.400 kva=40.0 %r=0.003000
~ wdg=2 conn=w kv=0.120 kva=20.0 %r=0.003000
~ wdg=3 conn=w kv=0.120 kva=20.0 %r=0.003000
new Xfmrcode.cimxfmrcode_xfmr_645_b_1 windings=3 phases=1 xhl=2.040000 xht=2.040000 xlt=0.680000 %imag=0.000 %noloadloss=0.000
~ wdg=1 conn=w kv=2.400 kva=40.0 %r=0.003000
~ wdg=2 conn=w kv=0.120 kva=20.0 %r=0.003000
~ wdg=3 conn=w kv=0.120 kva=20.0 %r=0.003000
new Xfmrcode.cimxfmrcode_xfmr_692_b_5 windings=3 phases=1 xhl=2.040000 xht=2.040000 xlt=0.680000 %imag=0.000 %noloadloss=0.000
~ wdg=1 conn=w kv=2.400 kva=40.0 %r=0.003000
~ wdg=2 conn=w kv=0.120 kva=20.0 %r=0.003000
~ wdg=3 conn=w kv=0.120 kva=20.0 %r=0.003000
new Xfmrcode.cimxfmrcode_xfmr_692_b_2 windings=3 phases=1 xhl=2.040000 xht=2.040000 xlt=0.680000 %imag=0.000 %noloadloss=0.000
~ wdg=1 conn=w kv=2.400 kva=40.0 %r=0.003000
~ wdg=2 conn=w kv=0.120 kva=20.0 %r=0.003000
~ wdg=3 conn=w kv=0.120 kva=20.0 %r=0.003000
new Xfmrcode.cimxfmrcode_xfmr_692_b_1 windings=3 phases=1 xhl=2.040000 xht=2.040000 xlt=0.680000 %imag=0.000 %noloadloss=0.000
~ wdg=1 conn=w kv=2.400 kva=40.0 %r=0.003000
~ wdg=2 conn=w kv=0.120 kva=20.0 %r=0.003000
~ wdg=3 conn=w kv=0.120 kva=20.0 %r=0.003000
new Xfmrcode.cimxfmrcode_xfmr_692_b_4 windings=3 phases=1 xhl=2.040000 xht=2.040000 xlt=0.680000 %imag=0.000 %noloadloss=0.000
~ wdg=1 conn=w kv=2.400 kva=40.0 %r=0.003000
~ wdg=2 conn=w kv=0.120 kva=20.0 %r=0.003000
~ wdg=3 conn=w kv=0.120 kva=20.0 %r=0.003000
new Xfmrcode.cimxfmrcode_xfmr_692_b_3 windings=3 phases=1 xhl=2.040000 xht=2.040000 xlt=0.680000 %imag=0.000 %noloadloss=0.000
~ wdg=1 conn=w kv=2.400 kva=40.0 %r=0.003000
~ wdg=2 conn=w kv=0.120 kva=20.0 %r=0.003000
~ wdg=3 conn=w kv=0.120 kva=20.0 %r=0.003000
new Xfmrcode.cimxfmrcode_xfmr_652_a_1 windings=3 phases=1 xhl=2.040000 xht=2.040000 xlt=0.680000 %imag=0.000 %noloadloss=0.000
~ wdg=1 conn=w kv=2.400 kva=40.0 %r=0.003000
~ wdg=2 conn=w kv=0.120 kva=20.0 %r=0.003000
~ wdg=3 conn=w kv=0.120 kva=20.0 %r=0.003000
new Xfmrcode.cimxfmrcode_xfmr_652_a_4 windings=3 phases=1 xhl=2.040000 xht=2.040000 xlt=0.680000 %imag=0.000 %noloadloss=0.000
~ wdg=1 conn=w kv=2.400 kva=40.0 %r=0.003000
~ wdg=2 conn=w kv=0.120 kva=20.0 %r=0.003000
~ wdg=3 conn=w kv=0.120 kva=20.0 %r=0.003000
new Xfmrcode.cimxfmrcode_xfmr_652_a_5 windings=3 phases=1 xhl=2.040000 xht=2.040000 xlt=0.680000 %imag=0.000 %noloadloss=0.000
~ wdg=1 conn=w kv=2.400 kva=40.0 %r=0.003000
~ wdg=2 conn=w kv=0.120 kva=20.0 %r=0.003000
~ wdg=3 conn=w kv=0.120 kva=20.0 %r=0.003000
new Xfmrcode.cimxfmrcode_xfmr_652_a_2 windings=3 phases=1 xhl=2.040000 xht=2.040000 xlt=0.680000 %imag=0.000 %noloadloss=0.000
~ wdg=1 conn=w kv=2.400 kva=40.0 %r=0.003000
~ wdg=2 conn=w kv=0.120 kva=20.0 %r=0.003000
~ wdg=3 conn=w kv=0.120 kva=20.0 %r=0.003000
new Xfmrcode.cimxfmrcode_xfmr_652_a_3 windings=3 phases=1 xhl=2.040000 xht=2.040000 xlt=0.680000 %imag=0.000 %noloadloss=0.000
~ wdg=1 conn=w kv=2.400 kva=40.0 %r=0.003000
~ wdg=2 conn=w kv=0.120 kva=20.0 %r=0.003000
~ wdg=3 conn=w kv=0.120 kva=20.0 %r=0.003000
new Xfmrcode.fdrxfmr windings=2 phases=3 xhl=2.000000 %imag=1.100 %noloadloss=0.600
~ wdg=1 conn=w kv=4.160 kva=10000.0 %r=0.550000
~ wdg=2 conn=w kv=0.480 kva=10000.0 %r=0.550000
new Xfmrcode.cimxfmrcode_xfmr_671_b_4 windings=3 phases=1 xhl=2.040000 xht=2.040000 xlt=0.680000 %imag=0.000 %noloadloss=0.000
~ wdg=1 conn=w kv=2.400 kva=40.0 %r=0.003000
~ wdg=2 conn=w kv=0.120 kva=20.0 %r=0.003000
~ wdg=3 conn=w kv=0.120 kva=20.0 %r=0.003000
new Xfmrcode.cimxfmrcode_xfmr_671_b_5 windings=3 phases=1 xhl=2.040000 xht=2.040000 xlt=0.680000 %imag=0.000 %noloadloss=0.000
~ wdg=1 conn=w kv=2.400 kva=40.0 %r=0.003000
~ wdg=2 conn=w kv=0.120 kva=20.0 %r=0.003000
~ wdg=3 conn=w kv=0.120 kva=20.0 %r=0.003000
new Xfmrcode.cimxfmrcode_xfmr_633_a_5 windings=3 phases=1 xhl=2.040000 xht=2.040000 xlt=0.680000 %imag=0.000 %noloadloss=0.000
~ wdg=1 conn=w kv=2.400 kva=40.0 %r=0.003000
~ wdg=2 conn=w kv=0.120 kva=20.0 %r=0.003000
~ wdg=3 conn=w kv=0.120 kva=20.0 %r=0.003000
new Xfmrcode.cimxfmrcode_xfmr_671_b_2 windings=3 phases=1 xhl=2.040000 xht=2.040000 xlt=0.680000 %imag=0.000 %noloadloss=0.000
~ wdg=1 conn=w kv=2.400 kva=40.0 %r=0.003000
~ wdg=2 conn=w kv=0.120 kva=20.0 %r=0.003000
~ wdg=3 conn=w kv=0.120 kva=20.0 %r=0.003000
new Xfmrcode.cimxfmrcode_xfmr_671_b_3 windings=3 phases=1 xhl=2.040000 xht=2.040000 xlt=0.680000 %imag=0.000 %noloadloss=0.000
~ wdg=1 conn=w kv=2.400 kva=40.0 %r=0.003000
~ wdg=2 conn=w kv=0.120 kva=20.0 %r=0.003000
~ wdg=3 conn=w kv=0.120 kva=20.0 %r=0.003000
new Xfmrcode.cimxfmrcode_xfmr_633_a_3 windings=3 phases=1 xhl=2.040000 xht=2.040000 xlt=0.680000 %imag=0.000 %noloadloss=0.000
~ wdg=1 conn=w kv=2.400 kva=40.0 %r=0.003000
~ wdg=2 conn=w kv=0.120 kva=20.0 %r=0.003000
~ wdg=3 conn=w kv=0.120 kva=20.0 %r=0.003000
new Xfmrcode.cimxfmrcode_xfmr_633_a_4 windings=3 phases=1 xhl=2.040000 xht=2.040000 xlt=0.680000 %imag=0.000 %noloadloss=0.000
~ wdg=1 conn=w kv=2.400 kva=40.0 %r=0.003000
~ wdg=2 conn=w kv=0.120 kva=20.0 %r=0.003000
~ wdg=3 conn=w kv=0.120 kva=20.0 %r=0.003000
new Xfmrcode.cimxfmrcode_xfmr_671_b_1 windings=3 phases=1 xhl=2.040000 xht=2.040000 xlt=0.680000 %imag=0.000 %noloadloss=0.000
~ wdg=1 conn=w kv=2.400 kva=40.0 %r=0.003000
~ wdg=2 conn=w kv=0.120 kva=20.0 %r=0.003000
~ wdg=3 conn=w kv=0.120 kva=20.0 %r=0.003000
new Xfmrcode.cimxfmrcode_xfmr_633_a_1 windings=3 phases=1 xhl=2.040000 xht=2.040000 xlt=0.680000 %imag=0.000 %noloadloss=0.000
~ wdg=1 conn=w kv=2.400 kva=40.0 %r=0.003000
~ wdg=2 conn=w kv=0.120 kva=20.0 %r=0.003000
~ wdg=3 conn=w kv=0.120 kva=20.0 %r=0.003000
new Xfmrcode.cimxfmrcode_xfmr_633_a_2 windings=3 phases=1 xhl=2.040000 xht=2.040000 xlt=0.680000 %imag=0.000 %noloadloss=0.000
~ wdg=1 conn=w kv=2.400 kva=40.0 %r=0.003000
~ wdg=2 conn=w kv=0.120 kva=20.0 %r=0.003000
~ wdg=3 conn=w kv=0.120 kva=20.0 %r=0.003000
new Xfmrcode.cimxfmrcode_xfmr_680_a_3 windings=3 phases=1 xhl=2.040000 xht=2.040000 xlt=0.680000 %imag=0.000 %noloadloss=0.000
~ wdg=1 conn=w kv=2.400 kva=40.0 %r=0.003000
~ wdg=2 conn=w kv=0.120 kva=20.0 %r=0.003000
~ wdg=3 conn=w kv=0.120 kva=20.0 %r=0.003000
new Xfmrcode.cimxfmrcode_xfmr_680_a_4 windings=3 phases=1 xhl=2.040000 xht=2.040000 xlt=0.680000 %imag=0.000 %noloadloss=0.000
~ wdg=1 conn=w kv=2.400 kva=40.0 %r=0.003000
~ wdg=2 conn=w kv=0.120 kva=20.0 %r=0.003000
~ wdg=3 conn=w kv=0.120 kva=20.0 %r=0.003000
new Xfmrcode.cimxfmrcode_xfmr_680_a_5 windings=3 phases=1 xhl=2.040000 xht=2.040000 xlt=0.680000 %imag=0.000 %noloadloss=0.000
~ wdg=1 conn=w kv=2.400 kva=40.0 %r=0.003000
~ wdg=2 conn=w kv=0.120 kva=20.0 %r=0.003000
~ wdg=3 conn=w kv=0.120 kva=20.0 %r=0.003000
new Xfmrcode.cimxfmrcode_xfmr_645_c_5 windings=3 phases=1 xhl=2.040000 xht=2.040000 xlt=0.680000 %imag=0.000 %noloadloss=0.000
~ wdg=1 conn=w kv=2.400 kva=40.0 %r=0.003000
~ wdg=2 conn=w kv=0.120 kva=20.0 %r=0.003000
~ wdg=3 conn=w kv=0.120 kva=20.0 %r=0.003000
new Xfmrcode.cimxfmrcode_xfmr_680_a_1 windings=3 phases=1 xhl=2.040000 xht=2.040000 xlt=0.680000 %imag=0.000 %noloadloss=0.000
~ wdg=1 conn=w kv=2.400 kva=40.0 %r=0.003000
~ wdg=2 conn=w kv=0.120 kva=20.0 %r=0.003000
~ wdg=3 conn=w kv=0.120 kva=20.0 %r=0.003000
new Xfmrcode.cimxfmrcode_xfmr_645_c_4 windings=3 phases=1 xhl=2.040000 xht=2.040000 xlt=0.680000 %imag=0.000 %noloadloss=0.000
~ wdg=1 conn=w kv=2.400 kva=40.0 %r=0.003000
~ wdg=2 conn=w kv=0.120 kva=20.0 %r=0.003000
~ wdg=3 conn=w kv=0.120 kva=20.0 %r=0.003000
new Xfmrcode.cimxfmrcode_xfmr_680_a_2 windings=3 phases=1 xhl=2.040000 xht=2.040000 xlt=0.680000 %imag=0.000 %noloadloss=0.000
~ wdg=1 conn=w kv=2.400 kva=40.0 %r=0.003000
~ wdg=2 conn=w kv=0.120 kva=20.0 %r=0.003000
~ wdg=3 conn=w kv=0.120 kva=20.0 %r=0.003000
new Xfmrcode.cimxfmrcode_xfmr_645_c_3 windings=3 phases=1 xhl=2.040000 xht=2.040000 xlt=0.680000 %imag=0.000 %noloadloss=0.000
~ wdg=1 conn=w kv=2.400 kva=40.0 %r=0.003000
~ wdg=2 conn=w kv=0.120 kva=20.0 %r=0.003000
~ wdg=3 conn=w kv=0.120 kva=20.0 %r=0.003000
new Xfmrcode.cimxfmrcode_xfmr_675_c_5 windings=3 phases=1 xhl=2.040000 xht=2.040000 xlt=0.680000 %imag=0.000 %noloadloss=0.000
~ wdg=1 conn=w kv=2.400 kva=40.0 %r=0.003000
~ wdg=2 conn=w kv=0.120 kva=20.0 %r=0.003000
~ wdg=3 conn=w kv=0.120 kva=20.0 %r=0.003000
new Xfmrcode.cimxfmrcode_xfmr_645_c_2 windings=3 phases=1 xhl=2.040000 xht=2.040000 xlt=0.680000 %imag=0.000 %noloadloss=0.000
~ wdg=1 conn=w kv=2.400 kva=40.0 %r=0.003000
~ wdg=2 conn=w kv=0.120 kva=20.0 %r=0.003000
~ wdg=3 conn=w kv=0.120 kva=20.0 %r=0.003000
new Xfmrcode.cimxfmrcode_xfmr_645_c_1 windings=3 phases=1 xhl=2.040000 xht=2.040000 xlt=0.680000 %imag=0.000 %noloadloss=0.000
~ wdg=1 conn=w kv=2.400 kva=40.0 %r=0.003000
~ wdg=2 conn=w kv=0.120 kva=20.0 %r=0.003000
~ wdg=3 conn=w kv=0.120 kva=20.0 %r=0.003000
new Xfmrcode.cimxfmrcode_xfmr_675_c_3 windings=3 phases=1 xhl=2.040000 xht=2.040000 xlt=0.680000 %imag=0.000 %noloadloss=0.000
~ wdg=1 conn=w kv=2.400 kva=40.0 %r=0.003000
~ wdg=2 conn=w kv=0.120 kva=20.0 %r=0.003000
~ wdg=3 conn=w kv=0.120 kva=20.0 %r=0.003000
new Xfmrcode.cimxfmrcode_xfmr_675_c_4 windings=3 phases=1 xhl=2.040000 xht=2.040000 xlt=0.680000 %imag=0.000 %noloadloss=0.000
~ wdg=1 conn=w kv=2.400 kva=40.0 %r=0.003000
~ wdg=2 conn=w kv=0.120 kva=20.0 %r=0.003000
~ wdg=3 conn=w kv=0.120 kva=20.0 %r=0.003000
new Xfmrcode.cimxfmrcode_xfmr_675_c_1 windings=3 phases=1 xhl=2.040000 xht=2.040000 xlt=0.680000 %imag=0.000 %noloadloss=0.000
~ wdg=1 conn=w kv=2.400 kva=40.0 %r=0.003000
~ wdg=2 conn=w kv=0.120 kva=20.0 %r=0.003000
~ wdg=3 conn=w kv=0.120 kva=20.0 %r=0.003000
new Xfmrcode.cimxfmrcode_xfmr_692_c_5 windings=3 phases=1 xhl=2.040000 xht=2.040000 xlt=0.680000 %imag=0.000 %noloadloss=0.000
~ wdg=1 conn=w kv=2.400 kva=40.0 %r=0.003000
~ wdg=2 conn=w kv=0.120 kva=20.0 %r=0.003000
~ wdg=3 conn=w kv=0.120 kva=20.0 %r=0.003000
new Xfmrcode.cimxfmrcode_xfmr_675_c_2 windings=3 phases=1 xhl=2.040000 xht=2.040000 xlt=0.680000 %imag=0.000 %noloadloss=0.000
~ wdg=1 conn=w kv=2.400 kva=40.0 %r=0.003000
~ wdg=2 conn=w kv=0.120 kva=20.0 %r=0.003000
~ wdg=3 conn=w kv=0.120 kva=20.0 %r=0.003000
new Xfmrcode.cimxfmrcode_xfmr_692_c_4 windings=3 phases=1 xhl=2.040000 xht=2.040000 xlt=0.680000 %imag=0.000 %noloadloss=0.000
~ wdg=1 conn=w kv=2.400 kva=40.0 %r=0.003000
~ wdg=2 conn=w kv=0.120 kva=20.0 %r=0.003000
~ wdg=3 conn=w kv=0.120 kva=20.0 %r=0.003000
new Xfmrcode.cimxfmrcode_xfmr_692_c_1 windings=3 phases=1 xhl=2.040000 xht=2.040000 xlt=0.680000 %imag=0.000 %noloadloss=0.000
~ wdg=1 conn=w kv=2.400 kva=40.0 %r=0.003000
~ wdg=2 conn=w kv=0.120 kva=20.0 %r=0.003000
~ wdg=3 conn=w kv=0.120 kva=20.0 %r=0.003000
new Xfmrcode.cimxfmrcode_xfmr_692_c_3 windings=3 phases=1 xhl=2.040000 xht=2.040000 xlt=0.680000 %imag=0.000 %noloadloss=0.000
~ wdg=1 conn=w kv=2.400 kva=40.0 %r=0.003000
~ wdg=2 conn=w kv=0.120 kva=20.0 %r=0.003000
~ wdg=3 conn=w kv=0.120 kva=20.0 %r=0.003000
new Xfmrcode.cimxfmrcode_xfmr_692_c_2 windings=3 phases=1 xhl=2.040000 xht=2.040000 xlt=0.680000 %imag=0.000 %noloadloss=0.000
~ wdg=1 conn=w kv=2.400 kva=40.0 %r=0.003000
~ wdg=2 conn=w kv=0.120 kva=20.0 %r=0.003000
~ wdg=3 conn=w kv=0.120 kva=20.0 %r=0.003000
new Xfmrcode.cimxfmrcode_xfmr_671_c_5 windings=3 phases=1 xhl=2.040000 xht=2.040000 xlt=0.680000 %imag=0.000 %noloadloss=0.000
~ wdg=1 conn=w kv=2.400 kva=40.0 %r=0.003000
~ wdg=2 conn=w kv=0.120 kva=20.0 %r=0.003000
~ wdg=3 conn=w kv=0.120 kva=20.0 %r=0.003000
new Xfmrcode.cimxfmrcode_xfmr_684_a_4 windings=3 phases=1 xhl=2.040000 xht=2.040000 xlt=0.680000 %imag=0.000 %noloadloss=0.000
~ wdg=1 conn=w kv=2.400 kva=40.0 %r=0.003000
~ wdg=2 conn=w kv=0.120 kva=20.0 %r=0.003000
~ wdg=3 conn=w kv=0.120 kva=20.0 %r=0.003000
new Xfmrcode.cimxfmrcode_xfmr_684_a_3 windings=3 phases=1 xhl=2.040000 xht=2.040000 xlt=0.680000 %imag=0.000 %noloadloss=0.000
~ wdg=1 conn=w kv=2.400 kva=40.0 %r=0.003000
~ wdg=2 conn=w kv=0.120 kva=20.0 %r=0.003000
~ wdg=3 conn=w kv=0.120 kva=20.0 %r=0.003000
new Xfmrcode.cimxfmrcode_xfmr_646_b_4 windings=3 phases=1 xhl=2.040000 xht=2.040000 xlt=0.680000 %imag=0.000 %noloadloss=0.000
~ wdg=1 conn=w kv=2.400 kva=40.0 %r=0.003000
~ wdg=2 conn=w kv=0.120 kva=20.0 %r=0.003000
~ wdg=3 conn=w kv=0.120 kva=20.0 %r=0.003000
new Xfmrcode.cimxfmrcode_xfmr_671_c_3 windings=3 phases=1 xhl=2.040000 xht=2.040000 xlt=0.680000 %imag=0.000 %noloadloss=0.000
~ wdg=1 conn=w kv=2.400 kva=40.0 %r=0.003000
~ wdg=2 conn=w kv=0.120 kva=20.0 %r=0.003000
~ wdg=3 conn=w kv=0.120 kva=20.0 %r=0.003000
new Xfmrcode.cimxfmrcode_xfmr_646_b_5 windings=3 phases=1 xhl=2.040000 xht=2.040000 xlt=0.680000 %imag=0.000 %noloadloss=0.000
~ wdg=1 conn=w kv=2.400 kva=40.0 %r=0.003000
~ wdg=2 conn=w kv=0.120 kva=20.0 %r=0.003000
~ wdg=3 conn=w kv=0.120 kva=20.0 %r=0.003000
new Xfmrcode.cimxfmrcode_xfmr_671_c_4 windings=3 phases=1 xhl=2.040000 xht=2.040000 xlt=0.680000 %imag=0.000 %noloadloss=0.000
~ wdg=1 conn=w kv=2.400 kva=40.0 %r=0.003000
~ wdg=2 conn=w kv=0.120 kva=20.0 %r=0.003000
~ wdg=3 conn=w kv=0.120 kva=20.0 %r=0.003000
new Xfmrcode.cimxfmrcode_xfmr_684_a_5 windings=3 phases=1 xhl=2.040000 xht=2.040000 xlt=0.680000 %imag=0.000 %noloadloss=0.000
~ wdg=1 conn=w kv=2.400 kva=40.0 %r=0.003000
~ wdg=2 conn=w kv=0.120 kva=20.0 %r=0.003000
~ wdg=3 conn=w kv=0.120 kva=20.0 %r=0.003000
new Xfmrcode.cimxfmrcode_xfmr_646_b_2 windings=3 phases=1 xhl=2.040000 xht=2.040000 xlt=0.680000 %imag=0.000 %noloadloss=0.000
~ wdg=1 conn=w kv=2.400 kva=40.0 %r=0.003000
~ wdg=2 conn=w kv=0.120 kva=20.0 %r=0.003000
~ wdg=3 conn=w kv=0.120 kva=20.0 %r=0.003000
new Xfmrcode.cimxfmrcode_xfmr_671_c_1 windings=3 phases=1 xhl=2.040000 xht=2.040000 xlt=0.680000 %imag=0.000 %noloadloss=0.000
~ wdg=1 conn=w kv=2.400 kva=40.0 %r=0.003000
~ wdg=2 conn=w kv=0.120 kva=20.0 %r=0.003000
~ wdg=3 conn=w kv=0.120 kva=20.0 %r=0.003000
new Xfmrcode.cimxfmrcode_xfmr_646_b_3 windings=3 phases=1 xhl=2.040000 xht=2.040000 xlt=0.680000 %imag=0.000 %noloadloss=0.000
~ wdg=1 conn=w kv=2.400 kva=40.0 %r=0.003000
~ wdg=2 conn=w kv=0.120 kva=20.0 %r=0.003000
~ wdg=3 conn=w kv=0.120 kva=20.0 %r=0.003000
new Xfmrcode.cimxfmrcode_xfmr_671_c_2 windings=3 phases=1 xhl=2.040000 xht=2.040000 xlt=0.680000 %imag=0.000 %noloadloss=0.000
~ wdg=1 conn=w kv=2.400 kva=40.0 %r=0.003000
~ wdg=2 conn=w kv=0.120 kva=20.0 %r=0.003000
~ wdg=3 conn=w kv=0.120 kva=20.0 %r=0.003000
new Xfmrcode.cimxfmrcode_xfmr_684_a_2 windings=3 phases=1 xhl=2.040000 xht=2.040000 xlt=0.680000 %imag=0.000 %noloadloss=0.000
~ wdg=1 conn=w kv=2.400 kva=40.0 %r=0.003000
~ wdg=2 conn=w kv=0.120 kva=20.0 %r=0.003000
~ wdg=3 conn=w kv=0.120 kva=20.0 %r=0.003000
new Xfmrcode.cimxfmrcode_xfmr_646_b_1 windings=3 phases=1 xhl=2.040000 xht=2.040000 xlt=0.680000 %imag=0.000 %noloadloss=0.000
~ wdg=1 conn=w kv=2.400 kva=40.0 %r=0.003000
~ wdg=2 conn=w kv=0.120 kva=20.0 %r=0.003000
~ wdg=3 conn=w kv=0.120 kva=20.0 %r=0.003000
new Xfmrcode.cimxfmrcode_xfmr_684_a_1 windings=3 phases=1 xhl=2.040000 xht=2.040000 xlt=0.680000 %imag=0.000 %noloadloss=0.000
~ wdg=1 conn=w kv=2.400 kva=40.0 %r=0.003000
~ wdg=2 conn=w kv=0.120 kva=20.0 %r=0.003000
~ wdg=3 conn=w kv=0.120 kva=20.0 %r=0.003000
new Xfmrcode.cimxfmrcode_xfmr_680_b_2 windings=3 phases=1 xhl=2.040000 xht=2.040000 xlt=0.680000 %imag=0.000 %noloadloss=0.000
~ wdg=1 conn=w kv=2.400 kva=40.0 %r=0.003000
~ wdg=2 conn=w kv=0.120 kva=20.0 %r=0.003000
~ wdg=3 conn=w kv=0.120 kva=20.0 %r=0.003000
new Xfmrcode.cimxfmrcode_xfmr_680_b_3 windings=3 phases=1 xhl=2.040000 xht=2.040000 xlt=0.680000 %imag=0.000 %noloadloss=0.000
~ wdg=1 conn=w kv=2.400 kva=40.0 %r=0.003000
~ wdg=2 conn=w kv=0.120 kva=20.0 %r=0.003000
~ wdg=3 conn=w kv=0.120 kva=20.0 %r=0.003000
new Xfmrcode.cimxfmrcode_xfmr_680_b_4 windings=3 phases=1 xhl=2.040000 xht=2.040000 xlt=0.680000 %imag=0.000 %noloadloss=0.000
~ wdg=1 conn=w kv=2.400 kva=40.0 %r=0.003000
~ wdg=2 conn=w kv=0.120 kva=20.0 %r=0.003000
~ wdg=3 conn=w kv=0.120 kva=20.0 %r=0.003000
new Xfmrcode.cimxfmrcode_xfmr_680_b_5 windings=3 phases=1 xhl=2.040000 xht=2.040000 xlt=0.680000 %imag=0.000 %noloadloss=0.000
~ wdg=1 conn=w kv=2.400 kva=40.0 %r=0.003000
~ wdg=2 conn=w kv=0.120 kva=20.0 %r=0.003000
~ wdg=3 conn=w kv=0.120 kva=20.0 %r=0.003000
new Xfmrcode.regleg windings=2 phases=1 xhl=0.010000 %imag=0.000 %noloadloss=0.000
~ wdg=1 conn=w kv=2.400 kva=10000.0 %r=0.005000
~ wdg=2 conn=w kv=2.400 kva=10000.0 %r=0.005000
new Xfmrcode.cimxfmrcode_xfmr_680_b_1 windings=3 phases=1 xhl=2.040000 xht=2.040000 xlt=0.680000 %imag=0.000 %noloadloss=0.000
~ wdg=1 conn=w kv=2.400 kva=40.0 %r=0.003000
~ wdg=2 conn=w kv=0.120 kva=20.0 %r=0.003000
~ wdg=3 conn=w kv=0.120 kva=20.0 %r=0.003000
new Xfmrcode.cimxfmrcode_xfmr_675_b_4 windings=3 phases=1 xhl=2.040000 xht=2.040000 xlt=0.680000 %imag=0.000 %noloadloss=0.000
~ wdg=1 conn=w kv=2.400 kva=40.0 %r=0.003000
~ wdg=2 conn=w kv=0.120 kva=20.0 %r=0.003000
~ wdg=3 conn=w kv=0.120 kva=20.0 %r=0.003000
new Xfmrcode.cimxfmrcode_xfmr_675_b_5 windings=3 phases=1 xhl=2.040000 xht=2.040000 xlt=0.680000 %imag=0.000 %noloadloss=0.000
~ wdg=1 conn=w kv=2.400 kva=40.0 %r=0.003000
~ wdg=2 conn=w kv=0.120 kva=20.0 %r=0.003000
~ wdg=3 conn=w kv=0.120 kva=20.0 %r=0.003000
new Xfmrcode.cimxfmrcode_xfmr_675_b_2 windings=3 phases=1 xhl=2.040000 xht=2.040000 xlt=0.680000 %imag=0.000 %noloadloss=0.000
~ wdg=1 conn=w kv=2.400 kva=40.0 %r=0.003000
~ wdg=2 conn=w kv=0.120 kva=20.0 %r=0.003000
~ wdg=3 conn=w kv=0.120 kva=20.0 %r=0.003000
new Xfmrcode.cimxfmrcode_xfmr_675_b_3 windings=3 phases=1 xhl=2.040000 xht=2.040000 xlt=0.680000 %imag=0.000 %noloadloss=0.000
~ wdg=1 conn=w kv=2.400 kva=40.0 %r=0.003000
~ wdg=2 conn=w kv=0.120 kva=20.0 %r=0.003000
~ wdg=3 conn=w kv=0.120 kva=20.0 %r=0.003000
new Xfmrcode.cimxfmrcode_xfmr_675_b_1 windings=3 phases=1 xhl=2.040000 xht=2.040000 xlt=0.680000 %imag=0.000 %noloadloss=0.000
~ wdg=1 conn=w kv=2.400 kva=40.0 %r=0.003000
~ wdg=2 conn=w kv=0.120 kva=20.0 %r=0.003000
~ wdg=3 conn=w kv=0.120 kva=20.0 %r=0.003000
new Xfmrcode.cimxfmrcode_xfmr_646_c_5 windings=3 phases=1 xhl=2.040000 xht=2.040000 xlt=0.680000 %imag=0.000 %noloadloss=0.000
~ wdg=1 conn=w kv=2.400 kva=40.0 %r=0.003000
~ wdg=2 conn=w kv=0.120 kva=20.0 %r=0.003000
~ wdg=3 conn=w kv=0.120 kva=20.0 %r=0.003000
new Xfmrcode.cimxfmrcode_xfmr_633_c_5 windings=3 phases=1 xhl=2.040000 xht=2.040000 xlt=0.680000 %imag=0.000 %noloadloss=0.000
~ wdg=1 conn=w kv=2.400 kva=40.0 %r=0.003000
~ wdg=2 conn=w kv=0.120 kva=20.0 %r=0.003000
~ wdg=3 conn=w kv=0.120 kva=20.0 %r=0.003000
new Xfmrcode.cimxfmrcode_xfmr_646_c_3 windings=3 phases=1 xhl=2.040000 xht=2.040000 xlt=0.680000 %imag=0.000 %noloadloss=0.000
~ wdg=1 conn=w kv=2.400 kva=40.0 %r=0.003000
~ wdg=2 conn=w kv=0.120 kva=20.0 %r=0.003000
~ wdg=3 conn=w kv=0.120 kva=20.0 %r=0.003000
new Xfmrcode.cimxfmrcode_xfmr_692_a_1 windings=3 phases=1 xhl=2.040000 xht=2.040000 xlt=0.680000 %imag=0.000 %noloadloss=0.000
~ wdg=1 conn=w kv=2.400 kva=40.0 %r=0.003000
~ wdg=2 conn=w kv=0.120 kva=20.0 %r=0.003000
~ wdg=3 conn=w kv=0.120 kva=20.0 %r=0.003000
new Xfmrcode.cimxfmrcode_xfmr_646_c_4 windings=3 phases=1 xhl=2.040000 xht=2.040000 xlt=0.680000 %imag=0.000 %noloadloss=0.000
~ wdg=1 conn=w kv=2.400 kva=40.0 %r=0.003000
~ wdg=2 conn=w kv=0.120 kva=20.0 %r=0.003000
~ wdg=3 conn=w kv=0.120 kva=20.0 %r=0.003000
new Xfmrcode.subxfmr windings=2 phases=3 xhl=0.008000 %imag=0.000 %noloadloss=0.000
~ wdg=1 conn=d kv=115.000 kva=100000.0 %r=0.000500
~ wdg=2 conn=w kv=4.160 kva=100000.0 %r=0.000500
new Xfmrcode.cimxfmrcode_xfmr_633_c_3 windings=3 phases=1 xhl=2.040000 xht=2.040000 xlt=0.680000 %imag=0.000 %noloadloss=0.000
~ wdg=1 conn=w kv=2.400 kva=40.0 %r=0.003000
~ wdg=2 conn=w kv=0.120 kva=20.0 %r=0.003000
~ wdg=3 conn=w kv=0.120 kva=20.0 %r=0.003000
new Xfmrcode.cimxfmrcode_xfmr_646_c_1 windings=3 phases=1 xhl=2.040000 xht=2.040000 xlt=0.680000 %imag=0.000 %noloadloss=0.000
~ wdg=1 conn=w kv=2.400 kva=40.0 %r=0.003000
~ wdg=2 conn=w kv=0.120 kva=20.0 %r=0.003000
~ wdg=3 conn=w kv=0.120 kva=20.0 %r=0.003000
new Xfmrcode.cimxfmrcode_xfmr_633_c_4 windings=3 phases=1 xhl=2.040000 xht=2.040000 xlt=0.680000 %imag=0.000 %noloadloss=0.000
~ wdg=1 conn=w kv=2.400 kva=40.0 %r=0.003000
~ wdg=2 conn=w kv=0.120 kva=20.0 %r=0.003000
~ wdg=3 conn=w kv=0.120 kva=20.0 %r=0.003000
new Xfmrcode.cimxfmrcode_xfmr_646_c_2 windings=3 phases=1 xhl=2.040000 xht=2.040000 xlt=0.680000 %imag=0.000 %noloadloss=0.000
~ wdg=1 conn=w kv=2.400 kva=40.0 %r=0.003000
~ wdg=2 conn=w kv=0.120 kva=20.0 %r=0.003000
~ wdg=3 conn=w kv=0.120 kva=20.0 %r=0.003000
new Xfmrcode.cimxfmrcode_xfmr_633_c_1 windings=3 phases=1 xhl=2.040000 xht=2.040000 xlt=0.680000 %imag=0.000 %noloadloss=0.000
~ wdg=1 conn=w kv=2.400 kva=40.0 %r=0.003000
~ wdg=2 conn=w kv=0.120 kva=20.0 %r=0.003000
~ wdg=3 conn=w kv=0.120 kva=20.0 %r=0.003000
new Xfmrcode.cimxfmrcode_xfmr_633_c_2 windings=3 phases=1 xhl=2.040000 xht=2.040000 xlt=0.680000 %imag=0.000 %noloadloss=0.000
~ wdg=1 conn=w kv=2.400 kva=40.0 %r=0.003000
~ wdg=2 conn=w kv=0.120 kva=20.0 %r=0.003000
~ wdg=3 conn=w kv=0.120 kva=20.0 %r=0.003000
new Xfmrcode.cimxfmrcode_xfmr_680_c_5 windings=3 phases=1 xhl=2.040000 xht=2.040000 xlt=0.680000 %imag=0.000 %noloadloss=0.000
~ wdg=1 conn=w kv=2.400 kva=40.0 %r=0.003000
~ wdg=2 conn=w kv=0.120 kva=20.0 %r=0.003000
~ wdg=3 conn=w kv=0.120 kva=20.0 %r=0.003000
new Xfmrcode.cimxfmrcode_xfmr_680_c_1 windings=3 phases=1 xhl=2.040000 xht=2.040000 xlt=0.680000 %imag=0.000 %noloadloss=0.000
~ wdg=1 conn=w kv=2.400 kva=40.0 %r=0.003000
~ wdg=2 conn=w kv=0.120 kva=20.0 %r=0.003000
~ wdg=3 conn=w kv=0.120 kva=20.0 %r=0.003000
new Xfmrcode.cimxfmrcode_xfmr_680_c_2 windings=3 phases=1 xhl=2.040000 xht=2.040000 xlt=0.680000 %imag=0.000 %noloadloss=0.000
~ wdg=1 conn=w kv=2.400 kva=40.0 %r=0.003000
~ wdg=2 conn=w kv=0.120 kva=20.0 %r=0.003000
~ wdg=3 conn=w kv=0.120 kva=20.0 %r=0.003000
new Xfmrcode.cimxfmrcode_xfmr_680_c_3 windings=3 phases=1 xhl=2.040000 xht=2.040000 xlt=0.680000 %imag=0.000 %noloadloss=0.000
~ wdg=1 conn=w kv=2.400 kva=40.0 %r=0.003000
~ wdg=2 conn=w kv=0.120 kva=20.0 %r=0.003000
~ wdg=3 conn=w kv=0.120 kva=20.0 %r=0.003000
new Xfmrcode.cimxfmrcode_xfmr_680_c_4 windings=3 phases=1 xhl=2.040000 xht=2.040000 xlt=0.680000 %imag=0.000 %noloadloss=0.000
~ wdg=1 conn=w kv=2.400 kva=40.0 %r=0.003000
~ wdg=2 conn=w kv=0.120 kva=20.0 %r=0.003000
~ wdg=3 conn=w kv=0.120 kva=20.0 %r=0.003000
new Xfmrcode.cimxfmrcode_xfmr_675_a_5 windings=3 phases=1 xhl=2.040000 xht=2.040000 xlt=0.680000 %imag=0.000 %noloadloss=0.000
~ wdg=1 conn=w kv=2.400 kva=40.0 %r=0.003000
~ wdg=2 conn=w kv=0.120 kva=20.0 %r=0.003000
~ wdg=3 conn=w kv=0.120 kva=20.0 %r=0.003000
new Xfmrcode.cimxfmrcode_xfmr_675_a_3 windings=3 phases=1 xhl=2.040000 xht=2.040000 xlt=0.680000 %imag=0.000 %noloadloss=0.000
~ wdg=1 conn=w kv=2.400 kva=40.0 %r=0.003000
~ wdg=2 conn=w kv=0.120 kva=20.0 %r=0.003000
~ wdg=3 conn=w kv=0.120 kva=20.0 %r=0.003000
new Xfmrcode.cimxfmrcode_xfmr_675_a_4 windings=3 phases=1 xhl=2.040000 xht=2.040000 xlt=0.680000 %imag=0.000 %noloadloss=0.000
~ wdg=1 conn=w kv=2.400 kva=40.0 %r=0.003000
~ wdg=2 conn=w kv=0.120 kva=20.0 %r=0.003000
~ wdg=3 conn=w kv=0.120 kva=20.0 %r=0.003000
new Xfmrcode.cimxfmrcode_xfmr_675_a_1 windings=3 phases=1 xhl=2.040000 xht=2.040000 xlt=0.680000 %imag=0.000 %noloadloss=0.000
~ wdg=1 conn=w kv=2.400 kva=40.0 %r=0.003000
~ wdg=2 conn=w kv=0.120 kva=20.0 %r=0.003000
~ wdg=3 conn=w kv=0.120 kva=20.0 %r=0.003000
new Xfmrcode.cimxfmrcode_xfmr_675_a_2 windings=3 phases=1 xhl=2.040000 xht=2.040000 xlt=0.680000 %imag=0.000 %noloadloss=0.000
~ wdg=1 conn=w kv=2.400 kva=40.0 %r=0.003000
~ wdg=2 conn=w kv=0.120 kva=20.0 %r=0.003000
~ wdg=3 conn=w kv=0.120 kva=20.0 %r=0.003000
new Xfmrcode.cimxfmrcode_xfmr_692_a_3 windings=3 phases=1 xhl=2.040000 xht=2.040000 xlt=0.680000 %imag=0.000 %noloadloss=0.000
~ wdg=1 conn=w kv=2.400 kva=40.0 %r=0.003000
~ wdg=2 conn=w kv=0.120 kva=20.0 %r=0.003000
~ wdg=3 conn=w kv=0.120 kva=20.0 %r=0.003000
new Xfmrcode.cimxfmrcode_xfmr_692_a_2 windings=3 phases=1 xhl=2.040000 xht=2.040000 xlt=0.680000 %imag=0.000 %noloadloss=0.000
~ wdg=1 conn=w kv=2.400 kva=40.0 %r=0.003000
~ wdg=2 conn=w kv=0.120 kva=20.0 %r=0.003000
~ wdg=3 conn=w kv=0.120 kva=20.0 %r=0.003000
new Xfmrcode.cimxfmrcode_xfmr_692_a_5 windings=3 phases=1 xhl=2.040000 xht=2.040000 xlt=0.680000 %imag=0.000 %noloadloss=0.000
~ wdg=1 conn=w kv=2.400 kva=40.0 %r=0.003000
~ wdg=2 conn=w kv=0.120 kva=20.0 %r=0.003000
~ wdg=3 conn=w kv=0.120 kva=20.0 %r=0.003000
new Xfmrcode.cimxfmrcode_xfmr_692_a_4 windings=3 phases=1 xhl=2.040000 xht=2.040000 xlt=0.680000 %imag=0.000 %noloadloss=0.000
~ wdg=1 conn=w kv=2.400 kva=40.0 %r=0.003000
~ wdg=2 conn=w kv=0.120 kva=20.0 %r=0.003000
~ wdg=3 conn=w kv=0.120 kva=20.0 %r=0.003000


new Storage.DER_645_b_27 phases=2 bus1=tlx_645_b_h_27.2.1 conn=w kva=20.000 kv=0.240 kwhrated=500.000 kwhstored=250.000 state=idling vminpu=0.9001 LimitCurrent=yes kw=0.00
new Storage.DER_645_b_28 phases=2 bus1=tlx_645_b_h_28.2.1 conn=w kva=20.000 kv=0.240 kwhrated=500.000 kwhstored=250.000 state=idling vminpu=0.9001 LimitCurrent=yes kw=0.00
new Storage.DER_645_b_29 phases=2 bus1=tlx_645_b_h_29.1.2 conn=w kva=20.000 kv=0.240 kwhrated=500.000 kwhstored=250.000 state=idling vminpu=0.9001 LimitCurrent=yes kw=0.00
new Storage.DER_645_b_23 phases=2 bus1=tlx_645_b_h_23.2.1 conn=w kva=20.000 kv=0.240 kwhrated=500.000 kwhstored=250.000 state=idling vminpu=0.9001 LimitCurrent=yes kw=0.00
new Storage.DER_645_b_24 phases=2 bus1=tlx_645_b_h_24.2.1 conn=w kva=20.000 kv=0.240 kwhrated=500.000 kwhstored=250.000 state=idling vminpu=0.9001 LimitCurrent=yes kw=0.00
new Storage.DER_645_b_25 phases=2 bus1=tlx_645_b_h_25.1.2 conn=w kva=20.000 kv=0.240 kwhrated=500.000 kwhstored=250.000 state=idling vminpu=0.9001 LimitCurrent=yes kw=0.00
new Storage.DER_645_b_26 phases=2 bus1=tlx_645_b_h_26.1.2 conn=w kva=20.000 kv=0.240 kwhrated=500.000 kwhstored=250.000 state=idling vminpu=0.9001 LimitCurrent=yes kw=0.00
new Storage.DER_645_b_20 phases=2 bus1=tlx_645_b_h_20.2.1 conn=w kva=20.000 kv=0.240 kwhrated=500.000 kwhstored=250.000 state=idling vminpu=0.9001 LimitCurrent=yes kw=0.00
new Storage.DER_645_b_21 phases=2 bus1=tlx_645_b_h_21.2.1 conn=w kva=20.000 kv=0.240 kwhrated=500.000 kwhstored=250.000 state=idling vminpu=0.9001 LimitCurrent=yes kw=0.00
new Storage.DER_645_b_22 phases=2 bus1=tlx_645_b_h_22.1.2 conn=w kva=20.000 kv=0.240 kwhrated=500.000 kwhstored=250.000 state=idling vminpu=0.9001 LimitCurrent=yes kw=0.00
new Storage.DER_633_c_17 phases=2 bus1=tlx_633_c_h_17.2.1 conn=w kva=20.000 kv=0.240 kwhrated=500.000 kwhstored=250.000 state=idling vminpu=0.9001 LimitCurrent=yes kw=0.00
new Storage.DER_633_c_16 phases=2 bus1=tlx_633_c_h_16.1.2 conn=w kva=20.000 kv=0.240 kwhrated=500.000 kwhstored=250.000 state=idling vminpu=0.9001 LimitCurrent=yes kw=0.00
new Storage.DER_633_c_19 phases=2 bus1=tlx_633_c_h_19.1.2 conn=w kva=20.000 kv=0.240 kwhrated=500.000 kwhstored=250.000 state=idling vminpu=0.9001 LimitCurrent=yes kw=0.00
new Storage.DER_633_c_18 phases=2 bus1=tlx_633_c_h_18.2.1 conn=w kva=20.000 kv=0.240 kwhrated=500.000 kwhstored=250.000 state=idling vminpu=0.9001 LimitCurrent=yes kw=0.00
new Storage.DER_633_c_13 phases=2 bus1=tlx_633_c_h_13.1.2 conn=w kva=20.000 kv=0.240 kwhrated=500.000 kwhstored=250.000 state=idling vminpu=0.9001 LimitCurrent=yes kw=0.00
new Storage.DER_633_c_12 phases=2 bus1=tlx_633_c_h_12.2.1 conn=w kva=20.000 kv=0.240 kwhrated=500.000 kwhstored=250.000 state=idling vminpu=0.9001 LimitCurrent=yes kw=0.00
new Storage.DER_633_c_15 phases=2 bus1=tlx_633_c_h_15.1.2 conn=w kva=20.000 kv=0.240 kwhrated=500.000 kwhstored=250.000 state=idling vminpu=0.9001 LimitCurrent=yes kw=0.00
new Storage.DER_633_c_14 phases=2 bus1=tlx_633_c_h_14.1.2 conn=w kva=20.000 kv=0.240 kwhrated=500.000 kwhstored=250.000 state=idling vminpu=0.9001 LimitCurrent=yes kw=0.00
new Storage.DER_633_c_11 phases=2 bus1=tlx_633_c_h_11.2.1 conn=w kva=20.000 kv=0.240 kwhrated=500.000 kwhstored=250.000 state=idling vminpu=0.9001 LimitCurrent=yes kw=0.00
new Storage.DER_633_c_10 phases=2 bus1=tlx_633_c_h_10.1.2 conn=w kva=20.000 kv=0.240 kwhrated=500.000 kwhstored=250.000 state=idling vminpu=0.9001 LimitCurrent=yes kw=0.00
new Storage.DER_645_b_38 phases=2 bus1=tlx_645_b_h_38.2.1 conn=w kva=20.000 kv=0.240 kwhrated=500.000 kwhstored=250.000 state=idling vminpu=0.9001 LimitCurrent=yes kw=0.00
new Storage.DER_645_b_39 phases=2 bus1=tlx_645_b_h_39.2.1 conn=w kva=20.000 kv=0.240 kwhrated=500.000 kwhstored=250.000 state=idling vminpu=0.9001 LimitCurrent=yes kw=0.00
new Storage.DER_645_b_34 phases=2 bus1=tlx_645_b_h_34.1.2 conn=w kva=20.000 kv=0.240 kwhrated=500.000 kwhstored=250.000 state=idling vminpu=0.9001 LimitCurrent=yes kw=0.00
new Storage.DER_645_b_35 phases=2 bus1=tlx_645_b_h_35.1.2 conn=w kva=20.000 kv=0.240 kwhrated=500.000 kwhstored=250.000 state=idling vminpu=0.9001 LimitCurrent=yes kw=0.00
new Storage.DER_645_b_36 phases=2 bus1=tlx_645_b_h_36.2.1 conn=w kva=20.000 kv=0.240 kwhrated=500.000 kwhstored=250.000 state=idling vminpu=0.9001 LimitCurrent=yes kw=0.00
new Storage.DER_645_b_37 phases=2 bus1=tlx_645_b_h_37.2.1 conn=w kva=20.000 kv=0.240 kwhrated=500.000 kwhstored=250.000 state=idling vminpu=0.9001 LimitCurrent=yes kw=0.00
new Storage.DER_645_b_30 phases=2 bus1=tlx_645_b_h_30.1.2 conn=w kva=20.000 kv=0.240 kwhrated=500.000 kwhstored=250.000 state=idling vminpu=0.9001 LimitCurrent=yes kw=0.00
new Storage.DER_645_b_31 phases=2 bus1=tlx_645_b_h_31.1.2 conn=w kva=20.000 kv=0.240 kwhrated=500.000 kwhstored=250.000 state=idling vminpu=0.9001 LimitCurrent=yes kw=0.00
new Storage.DER_645_b_32 phases=2 bus1=tlx_645_b_h_32.2.1 conn=w kva=20.000 kv=0.240 kwhrated=500.000 kwhstored=250.000 state=idling vminpu=0.9001 LimitCurrent=yes kw=0.00
new Storage.DER_645_b_33 phases=2 bus1=tlx_645_b_h_33.1.2 conn=w kva=20.000 kv=0.240 kwhrated=500.000 kwhstored=250.000 state=idling vminpu=0.9001 LimitCurrent=yes kw=0.00
new Storage.DER_633_c_28 phases=2 bus1=tlx_633_c_h_28.2.1 conn=w kva=20.000 kv=0.240 kwhrated=500.000 kwhstored=250.000 state=idling vminpu=0.9001 LimitCurrent=yes kw=0.00
new Storage.DER_633_c_27 phases=2 bus1=tlx_633_c_h_27.2.1 conn=w kva=20.000 kv=0.240 kwhrated=500.000 kwhstored=250.000 state=idling vminpu=0.9001 LimitCurrent=yes kw=0.00
new Storage.DER_633_c_29 phases=2 bus1=tlx_633_c_h_29.2.1 conn=w kva=20.000 kv=0.240 kwhrated=500.000 kwhstored=250.000 state=idling vminpu=0.9001 LimitCurrent=yes kw=0.00
new Storage.DER_633_c_24 phases=2 bus1=tlx_633_c_h_24.1.2 conn=w kva=20.000 kv=0.240 kwhrated=500.000 kwhstored=250.000 state=idling vminpu=0.9001 LimitCurrent=yes kw=0.00
new Storage.DER_633_c_23 phases=2 bus1=tlx_633_c_h_23.2.1 conn=w kva=20.000 kv=0.240 kwhrated=500.000 kwhstored=250.000 state=idling vminpu=0.9001 LimitCurrent=yes kw=0.00
new Storage.DER_633_c_26 phases=2 bus1=tlx_633_c_h_26.1.2 conn=w kva=20.000 kv=0.240 kwhrated=500.000 kwhstored=250.000 state=idling vminpu=0.9001 LimitCurrent=yes kw=0.00
new Storage.DER_633_c_25 phases=2 bus1=tlx_633_c_h_25.2.1 conn=w kva=20.000 kv=0.240 kwhrated=500.000 kwhstored=250.000 state=idling vminpu=0.9001 LimitCurrent=yes kw=0.00
new Storage.DER_633_c_20 phases=2 bus1=tlx_633_c_h_20.2.1 conn=w kva=20.000 kv=0.240 kwhrated=500.000 kwhstored=250.000 state=idling vminpu=0.9001 LimitCurrent=yes kw=0.00
new Storage.DER_633_c_22 phases=2 bus1=tlx_633_c_h_22.1.2 conn=w kva=20.000 kv=0.240 kwhrated=500.000 kwhstored=250.000 state=idling vminpu=0.9001 LimitCurrent=yes kw=0.00
new Storage.DER_633_c_21 phases=2 bus1=tlx_633_c_h_21.1.2 conn=w kva=20.000 kv=0.240 kwhrated=500.000 kwhstored=250.000 state=idling vminpu=0.9001 LimitCurrent=yes kw=0.00
new Storage.DER_633_c_39 phases=2 bus1=tlx_633_c_h_39.1.2 conn=w kva=20.000 kv=0.240 kwhrated=500.000 kwhstored=250.000 state=idling vminpu=0.9001 LimitCurrent=yes kw=0.00
new Storage.DER_652_a_8 phases=2 bus1=tlx_652_a_h_8.2.1 conn=w kva=20.000 kv=0.240 kwhrated=500.000 kwhstored=250.000 state=idling vminpu=0.9001 LimitCurrent=yes kw=0.00
new Storage.DER_633_c_38 phases=2 bus1=tlx_633_c_h_38.1.2 conn=w kva=20.000 kv=0.240 kwhrated=500.000 kwhstored=250.000 state=idling vminpu=0.9001 LimitCurrent=yes kw=0.00
new Storage.DER_652_a_9 phases=2 bus1=tlx_652_a_h_9.2.1 conn=w kva=20.000 kv=0.240 kwhrated=500.000 kwhstored=250.000 state=idling vminpu=0.9001 LimitCurrent=yes kw=0.00
new Storage.DER_633_c_35 phases=2 bus1=tlx_633_c_h_35.2.1 conn=w kva=20.000 kv=0.240 kwhrated=500.000 kwhstored=250.000 state=idling vminpu=0.9001 LimitCurrent=yes kw=0.00
new Storage.DER_633_c_34 phases=2 bus1=tlx_633_c_h_34.1.2 conn=w kva=20.000 kv=0.240 kwhrated=500.000 kwhstored=250.000 state=idling vminpu=0.9001 LimitCurrent=yes kw=0.00
new Storage.DER_633_c_37 phases=2 bus1=tlx_633_c_h_37.2.1 conn=w kva=20.000 kv=0.240 kwhrated=500.000 kwhstored=250.000 state=idling vminpu=0.9001 LimitCurrent=yes kw=0.00
new Storage.DER_633_c_36 phases=2 bus1=tlx_633_c_h_36.2.1 conn=w kva=20.000 kv=0.240 kwhrated=500.000 kwhstored=250.000 state=idling vminpu=0.9001 LimitCurrent=yes kw=0.00
new Storage.DER_633_c_31 phases=2 bus1=tlx_633_c_h_31.2.1 conn=w kva=20.000 kv=0.240 kwhrated=500.000 kwhstored=250.000 state=idling vminpu=0.9001 LimitCurrent=yes kw=0.00
new Storage.DER_633_c_30 phases=2 bus1=tlx_633_c_h_30.1.2 conn=w kva=20.000 kv=0.240 kwhrated=500.000 kwhstored=250.000 state=idling vminpu=0.9001 LimitCurrent=yes kw=0.00
new Storage.DER_633_c_33 phases=2 bus1=tlx_633_c_h_33.1.2 conn=w kva=20.000 kv=0.240 kwhrated=500.000 kwhstored=250.000 state=idling vminpu=0.9001 LimitCurrent=yes kw=0.00
new Storage.DER_633_c_32 phases=2 bus1=tlx_633_c_h_32.1.2 conn=w kva=20.000 kv=0.240 kwhrated=500.000 kwhstored=250.000 state=idling vminpu=0.9001 LimitCurrent=yes kw=0.00
new Storage.DER_633_c_40 phases=2 bus1=tlx_633_c_h_40.1.2 conn=w kva=20.000 kv=0.240 kwhrated=500.000 kwhstored=250.000 state=idling vminpu=0.9001 LimitCurrent=yes kw=0.00
new Storage.DER_645_b_16 phases=2 bus1=tlx_645_b_h_16.2.1 conn=w kva=20.000 kv=0.240 kwhrated=500.000 kwhstored=250.000 state=idling vminpu=0.9001 LimitCurrent=yes kw=0.00
new Storage.DER_645_b_17 phases=2 bus1=tlx_645_b_h_17.1.2 conn=w kva=20.000 kv=0.240 kwhrated=500.000 kwhstored=250.000 state=idling vminpu=0.9001 LimitCurrent=yes kw=0.00
new Storage.DER_645_b_18 phases=2 bus1=tlx_645_b_h_18.2.1 conn=w kva=20.000 kv=0.240 kwhrated=500.000 kwhstored=250.000 state=idling vminpu=0.9001 LimitCurrent=yes kw=0.00
new Storage.DER_645_b_19 phases=2 bus1=tlx_645_b_h_19.1.2 conn=w kva=20.000 kv=0.240 kwhrated=500.000 kwhstored=250.000 state=idling vminpu=0.9001 LimitCurrent=yes kw=0.00
new Storage.DER_645_b_12 phases=2 bus1=tlx_645_b_h_12.1.2 conn=w kva=20.000 kv=0.240 kwhrated=500.000 kwhstored=250.000 state=idling vminpu=0.9001 LimitCurrent=yes kw=0.00
new Storage.DER_652_a_4 phases=2 bus1=tlx_652_a_h_4.2.1 conn=w kva=20.000 kv=0.240 kwhrated=500.000 kwhstored=250.000 state=idling vminpu=0.9001 LimitCurrent=yes kw=0.00
new Storage.DER_645_b_13 phases=2 bus1=tlx_645_b_h_13.2.1 conn=w kva=20.000 kv=0.240 kwhrated=500.000 kwhstored=250.000 state=idling vminpu=0.9001 LimitCurrent=yes kw=0.00
new Storage.DER_652_a_5 phases=2 bus1=tlx_652_a_h_5.2.1 conn=w kva=20.000 kv=0.240 kwhrated=500.000 kwhstored=250.000 state=idling vminpu=0.9001 LimitCurrent=yes kw=0.00
new Storage.DER_645_b_14 phases=2 bus1=tlx_645_b_h_14.2.1 conn=w kva=20.000 kv=0.240 kwhrated=500.000 kwhstored=250.000 state=idling vminpu=0.9001 LimitCurrent=yes kw=0.00
new Storage.DER_652_a_6 phases=2 bus1=tlx_652_a_h_6.1.2 conn=w kva=20.000 kv=0.240 kwhrated=500.000 kwhstored=250.000 state=idling vminpu=0.9001 LimitCurrent=yes kw=0.00
new Storage.DER_645_b_15 phases=2 bus1=tlx_645_b_h_15.1.2 conn=w kva=20.000 kv=0.240 kwhrated=500.000 kwhstored=250.000 state=idling vminpu=0.9001 LimitCurrent=yes kw=0.00
new Storage.DER_652_a_7 phases=2 bus1=tlx_652_a_h_7.1.2 conn=w kva=20.000 kv=0.240 kwhrated=500.000 kwhstored=250.000 state=idling vminpu=0.9001 LimitCurrent=yes kw=0.00
new Storage.DER_652_a_1 phases=2 bus1=tlx_652_a_h_1.2.1 conn=w kva=20.000 kv=0.240 kwhrated=500.000 kwhstored=250.000 state=idling vminpu=0.9001 LimitCurrent=yes kw=0.00
new Storage.DER_645_b_10 phases=2 bus1=tlx_645_b_h_10.1.2 conn=w kva=20.000 kv=0.240 kwhrated=500.000 kwhstored=250.000 state=idling vminpu=0.9001 LimitCurrent=yes kw=0.00
new Storage.DER_652_a_2 phases=2 bus1=tlx_652_a_h_2.2.1 conn=w kva=20.000 kv=0.240 kwhrated=500.000 kwhstored=250.000 state=idling vminpu=0.9001 LimitCurrent=yes kw=0.00
new Storage.DER_645_b_11 phases=2 bus1=tlx_645_b_h_11.1.2 conn=w kva=20.000 kv=0.240 kwhrated=500.000 kwhstored=250.000 state=idling vminpu=0.9001 LimitCurrent=yes kw=0.00
new Storage.DER_652_a_3 phases=2 bus1=tlx_652_a_h_3.1.2 conn=w kva=20.000 kv=0.240 kwhrated=500.000 kwhstored=250.000 state=idling vminpu=0.9001 LimitCurrent=yes kw=0.00
new Storage.DER_671_b_34 phases=2 bus1=tlx_671_b_h_34.2.1 conn=w kva=20.000 kv=0.240 kwhrated=500.000 kwhstored=250.000 state=idling vminpu=0.9001 LimitCurrent=yes kw=0.00
new Storage.DER_671_b_33 phases=2 bus1=tlx_671_b_h_33.1.2 conn=w kva=20.000 kv=0.240 kwhrated=500.000 kwhstored=250.000 state=idling vminpu=0.9001 LimitCurrent=yes kw=0.00
new Storage.DER_671_b_32 phases=2 bus1=tlx_671_b_h_32.1.2 conn=w kva=20.000 kv=0.240 kwhrated=500.000 kwhstored=250.000 state=idling vminpu=0.9001 LimitCurrent=yes kw=0.00
new Storage.DER_671_b_31 phases=2 bus1=tlx_671_b_h_31.1.2 conn=w kva=20.000 kv=0.240 kwhrated=500.000 kwhstored=250.000 state=idling vminpu=0.9001 LimitCurrent=yes kw=0.00
new Storage.DER_671_b_38 phases=2 bus1=tlx_671_b_h_38.2.1 conn=w kva=20.000 kv=0.240 kwhrated=500.000 kwhstored=250.000 state=idling vminpu=0.9001 LimitCurrent=yes kw=0.00
new Storage.DER_671_b_37 phases=2 bus1=tlx_671_b_h_37.1.2 conn=w kva=20.000 kv=0.240 kwhrated=500.000 kwhstored=250.000 state=idling vminpu=0.9001 LimitCurrent=yes kw=0.00
new Storage.DER_671_b_36 phases=2 bus1=tlx_671_b_h_36.2.1 conn=w kva=20.000 kv=0.240 kwhrated=500.000 kwhstored=250.000 state=idling vminpu=0.9001 LimitCurrent=yes kw=0.00
new Storage.DER_671_b_35 phases=2 bus1=tlx_671_b_h_35.2.1 conn=w kva=20.000 kv=0.240 kwhrated=500.000 kwhstored=250.000 state=idling vminpu=0.9001 LimitCurrent=yes kw=0.00
new Storage.DER_671_b_30 phases=2 bus1=tlx_671_b_h_30.1.2 conn=w kva=20.000 kv=0.240 kwhrated=500.000 kwhstored=250.000 state=idling vminpu=0.9001 LimitCurrent=yes kw=0.00
new Storage.DER_675_b_1 phases=2 bus1=tlx_675_b_h_1.1.2 conn=w kva=20.000 kv=0.240 kwhrated=500.000 kwhstored=250.000 state=idling vminpu=0.9001 LimitCurrent=yes kw=0.00
new Storage.DER_633_a_36 phases=2 bus1=tlx_633_a_h_36.2.1 conn=w kva=20.000 kv=0.240 kwhrated=500.000 kwhstored=250.000 state=idling vminpu=0.9001 LimitCurrent=yes kw=0.00
new Storage.DER_675_b_2 phases=2 bus1=tlx_675_b_h_2.1.2 conn=w kva=20.000 kv=0.240 kwhrated=500.000 kwhstored=250.000 state=idling vminpu=0.9001 LimitCurrent=yes kw=0.00
new Storage.DER_675_c_39 phases=2 bus1=tlx_675_c_h_39.1.2 conn=w kva=20.000 kv=0.240 kwhrated=500.000 kwhstored=250.000 state=idling vminpu=0.9001 LimitCurrent=yes kw=0.00
new Storage.DER_633_a_37 phases=2 bus1=tlx_633_a_h_37.1.2 conn=w kva=20.000 kv=0.240 kwhrated=500.000 kwhstored=250.000 state=idling vminpu=0.9001 LimitCurrent=yes kw=0.00
new Storage.DER_675_b_3 phases=2 bus1=tlx_675_b_h_3.2.1 conn=w kva=20.000 kv=0.240 kwhrated=500.000 kwhstored=250.000 state=idling vminpu=0.9001 LimitCurrent=yes kw=0.00
new Storage.DER_675_c_38 phases=2 bus1=tlx_675_c_h_38.1.2 conn=w kva=20.000 kv=0.240 kwhrated=500.000 kwhstored=250.000 state=idling vminpu=0.9001 LimitCurrent=yes kw=0.00
new Storage.DER_633_a_38 phases=2 bus1=tlx_633_a_h_38.1.2 conn=w kva=20.000 kv=0.240 kwhrated=500.000 kwhstored=250.000 state=idling vminpu=0.9001 LimitCurrent=yes kw=0.00
new Storage.DER_675_b_4 phases=2 bus1=tlx_675_b_h_4.1.2 conn=w kva=20.000 kv=0.240 kwhrated=500.000 kwhstored=250.000 state=idling vminpu=0.9001 LimitCurrent=yes kw=0.00
new Storage.DER_675_c_37 phases=2 bus1=tlx_675_c_h_37.1.2 conn=w kva=20.000 kv=0.240 kwhrated=500.000 kwhstored=250.000 state=idling vminpu=0.9001 LimitCurrent=yes kw=0.00
new Storage.DER_633_a_39 phases=2 bus1=tlx_633_a_h_39.2.1 conn=w kva=20.000 kv=0.240 kwhrated=500.000 kwhstored=250.000 state=idling vminpu=0.9001 LimitCurrent=yes kw=0.00
new Storage.DER_675_b_5 phases=2 bus1=tlx_675_b_h_5.2.1 conn=w kva=20.000 kv=0.240 kwhrated=500.000 kwhstored=250.000 state=idling vminpu=0.9001 LimitCurrent=yes kw=0.00
new Storage.DER_675_c_36 phases=2 bus1=tlx_675_c_h_36.1.2 conn=w kva=20.000 kv=0.240 kwhrated=500.000 kwhstored=250.000 state=idling vminpu=0.9001 LimitCurrent=yes kw=0.00
new Storage.DER_633_a_32 phases=2 bus1=tlx_633_a_h_32.1.2 conn=w kva=20.000 kv=0.240 kwhrated=500.000 kwhstored=250.000 state=idling vminpu=0.9001 LimitCurrent=yes kw=0.00
new Storage.DER_675_c_35 phases=2 bus1=tlx_675_c_h_35.2.1 conn=w kva=20.000 kv=0.240 kwhrated=500.000 kwhstored=250.000 state=idling vminpu=0.9001 LimitCurrent=yes kw=0.00
new Storage.DER_633_a_33 phases=2 bus1=tlx_633_a_h_33.1.2 conn=w kva=20.000 kv=0.240 kwhrated=500.000 kwhstored=250.000 state=idling vminpu=0.9001 LimitCurrent=yes kw=0.00
new Storage.DER_675_c_34 phases=2 bus1=tlx_675_c_h_34.1.2 conn=w kva=20.000 kv=0.240 kwhrated=500.000 kwhstored=250.000 state=idling vminpu=0.9001 LimitCurrent=yes kw=0.00
new Storage.DER_633_a_34 phases=2 bus1=tlx_633_a_h_34.1.2 conn=w kva=20.000 kv=0.240 kwhrated=500.000 kwhstored=250.000 state=idling vminpu=0.9001 LimitCurrent=yes kw=0.00
new Storage.DER_671_b_29 phases=2 bus1=tlx_671_b_h_29.2.1 conn=w kva=20.000 kv=0.240 kwhrated=500.000 kwhstored=250.000 state=idling vminpu=0.9001 LimitCurrent=yes kw=0.00
new Storage.DER_675_c_33 phases=2 bus1=tlx_675_c_h_33.1.2 conn=w kva=20.000 kv=0.240 kwhrated=500.000 kwhstored=250.000 state=idling vminpu=0.9001 LimitCurrent=yes kw=0.00
new Storage.DER_633_a_35 phases=2 bus1=tlx_633_a_h_35.1.2 conn=w kva=20.000 kv=0.240 kwhrated=500.000 kwhstored=250.000 state=idling vminpu=0.9001 LimitCurrent=yes kw=0.00
new Storage.DER_671_b_28 phases=2 bus1=tlx_671_b_h_28.2.1 conn=w kva=20.000 kv=0.240 kwhrated=500.000 kwhstored=250.000 state=idling vminpu=0.9001 LimitCurrent=yes kw=0.00
new Storage.DER_675_c_32 phases=2 bus1=tlx_675_c_h_32.1.2 conn=w kva=20.000 kv=0.240 kwhrated=500.000 kwhstored=250.000 state=idling vminpu=0.9001 LimitCurrent=yes kw=0.00
new Storage.DER_675_c_31 phases=2 bus1=tlx_675_c_h_31.1.2 conn=w kva=20.000 kv=0.240 kwhrated=500.000 kwhstored=250.000 state=idling vminpu=0.9001 LimitCurrent=yes kw=0.00
new Storage.DER_675_c_30 phases=2 bus1=tlx_675_c_h_30.1.2 conn=w kva=20.000 kv=0.240 kwhrated=500.000 kwhstored=250.000 state=idling vminpu=0.9001 LimitCurrent=yes kw=0.00
new Storage.DER_633_a_30 phases=2 bus1=tlx_633_a_h_30.1.2 conn=w kva=20.000 kv=0.240 kwhrated=500.000 kwhstored=250.000 state=idling vminpu=0.9001 LimitCurrent=yes kw=0.00
new Storage.DER_633_a_31 phases=2 bus1=tlx_633_a_h_31.2.1 conn=w kva=20.000 kv=0.240 kwhrated=500.000 kwhstored=250.000 state=idling vminpu=0.9001 LimitCurrent=yes kw=0.00
new Storage.DER_671_b_23 phases=2 bus1=tlx_671_b_h_23.1.2 conn=w kva=20.000 kv=0.240 kwhrated=500.000 kwhstored=250.000 state=idling vminpu=0.9001 LimitCurrent=yes kw=0.00
new Storage.DER_671_b_22 phases=2 bus1=tlx_671_b_h_22.2.1 conn=w kva=20.000 kv=0.240 kwhrated=500.000 kwhstored=250.000 state=idling vminpu=0.9001 LimitCurrent=yes kw=0.00
new Storage.DER_671_b_21 phases=2 bus1=tlx_671_b_h_21.2.1 conn=w kva=20.000 kv=0.240 kwhrated=500.000 kwhstored=250.000 state=idling vminpu=0.9001 LimitCurrent=yes kw=0.00
new Storage.DER_671_b_20 phases=2 bus1=tlx_671_b_h_20.1.2 conn=w kva=20.000 kv=0.240 kwhrated=500.000 kwhstored=250.000 state=idling vminpu=0.9001 LimitCurrent=yes kw=0.00
new Storage.DER_671_b_27 phases=2 bus1=tlx_671_b_h_27.1.2 conn=w kva=20.000 kv=0.240 kwhrated=500.000 kwhstored=250.000 state=idling vminpu=0.9001 LimitCurrent=yes kw=0.00
new Storage.DER_671_b_26 phases=2 bus1=tlx_671_b_h_26.1.2 conn=w kva=20.000 kv=0.240 kwhrated=500.000 kwhstored=250.000 state=idling vminpu=0.9001 LimitCurrent=yes kw=0.00
new Storage.DER_671_b_25 phases=2 bus1=tlx_671_b_h_25.2.1 conn=w kva=20.000 kv=0.240 kwhrated=500.000 kwhstored=250.000 state=idling vminpu=0.9001 LimitCurrent=yes kw=0.00
new Storage.DER_671_b_24 phases=2 bus1=tlx_671_b_h_24.1.2 conn=w kva=20.000 kv=0.240 kwhrated=500.000 kwhstored=250.000 state=idling vminpu=0.9001 LimitCurrent=yes kw=0.00
new Storage.DER_675_b_6 phases=2 bus1=tlx_675_b_h_6.1.2 conn=w kva=20.000 kv=0.240 kwhrated=500.000 kwhstored=250.000 state=idling vminpu=0.9001 LimitCurrent=yes kw=0.00
new Storage.DER_675_b_7 phases=2 bus1=tlx_675_b_h_7.1.2 conn=w kva=20.000 kv=0.240 kwhrated=500.000 kwhstored=250.000 state=idling vminpu=0.9001 LimitCurrent=yes kw=0.00
new Storage.DER_675_b_8 phases=2 bus1=tlx_675_b_h_8.2.1 conn=w kva=20.000 kv=0.240 kwhrated=500.000 kwhstored=250.000 state=idling vminpu=0.9001 LimitCurrent=yes kw=0.00
new Storage.DER_675_b_9 phases=2 bus1=tlx_675_b_h_9.1.2 conn=w kva=20.000 kv=0.240 kwhrated=500.000 kwhstored=250.000 state=idling vminpu=0.9001 LimitCurrent=yes kw=0.00
new Storage.DER_671_b_19 phases=2 bus1=tlx_671_b_h_19.1.2 conn=w kva=20.000 kv=0.240 kwhrated=500.000 kwhstored=250.000 state=idling vminpu=0.9001 LimitCurrent=yes kw=0.00
new Storage.DER_671_b_18 phases=2 bus1=tlx_671_b_h_18.2.1 conn=w kva=20.000 kv=0.240 kwhrated=500.000 kwhstored=250.000 state=idling vminpu=0.9001 LimitCurrent=yes kw=0.00
new Storage.DER_671_b_17 phases=2 bus1=tlx_671_b_h_17.1.2 conn=w kva=20.000 kv=0.240 kwhrated=500.000 kwhstored=250.000 state=idling vminpu=0.9001 LimitCurrent=yes kw=0.00
new Storage.DER_633_a_40 phases=2 bus1=tlx_633_a_h_40.2.1 conn=w kva=20.000 kv=0.240 kwhrated=500.000 kwhstored=250.000 state=idling vminpu=0.9001 LimitCurrent=yes kw=0.00
new Storage.DER_675_c_40 phases=2 bus1=tlx_675_c_h_40.2.1 conn=w kva=20.000 kv=0.240 kwhrated=500.000 kwhstored=250.000 state=idling vminpu=0.9001 LimitCurrent=yes kw=0.00
new Storage.DER_671_b_40 phases=2 bus1=tlx_671_b_h_40.1.2 conn=w kva=20.000 kv=0.240 kwhrated=500.000 kwhstored=250.000 state=idling vminpu=0.9001 LimitCurrent=yes kw=0.00
new Storage.DER_671_b_39 phases=2 bus1=tlx_671_b_h_39.1.2 conn=w kva=20.000 kv=0.240 kwhrated=500.000 kwhstored=250.000 state=idling vminpu=0.9001 LimitCurrent=yes kw=0.00
new Storage.DER_646_b_32 phases=2 bus1=tlx_646_b_h_32.1.2 conn=w kva=20.000 kv=0.240 kwhrated=500.000 kwhstored=250.000 state=idling vminpu=0.9001 LimitCurrent=yes kw=0.00
new Storage.DER_646_b_31 phases=2 bus1=tlx_646_b_h_31.2.1 conn=w kva=20.000 kv=0.240 kwhrated=500.000 kwhstored=250.000 state=idling vminpu=0.9001 LimitCurrent=yes kw=0.00
new Storage.DER_646_b_34 phases=2 bus1=tlx_646_b_h_34.1.2 conn=w kva=20.000 kv=0.240 kwhrated=500.000 kwhstored=250.000 state=idling vminpu=0.9001 LimitCurrent=yes kw=0.00
new Storage.DER_646_b_33 phases=2 bus1=tlx_646_b_h_33.2.1 conn=w kva=20.000 kv=0.240 kwhrated=500.000 kwhstored=250.000 state=idling vminpu=0.9001 LimitCurrent=yes kw=0.00
new Storage.DER_646_b_36 phases=2 bus1=tlx_646_b_h_36.2.1 conn=w kva=20.000 kv=0.240 kwhrated=500.000 kwhstored=250.000 state=idling vminpu=0.9001 LimitCurrent=yes kw=0.00
new Storage.DER_646_b_35 phases=2 bus1=tlx_646_b_h_35.2.1 conn=w kva=20.000 kv=0.240 kwhrated=500.000 kwhstored=250.000 state=idling vminpu=0.9001 LimitCurrent=yes kw=0.00
new Storage.DER_646_b_38 phases=2 bus1=tlx_646_b_h_38.2.1 conn=w kva=20.000 kv=0.240 kwhrated=500.000 kwhstored=250.000 state=idling vminpu=0.9001 LimitCurrent=yes kw=0.00
new Storage.DER_646_b_37 phases=2 bus1=tlx_646_b_h_37.1.2 conn=w kva=20.000 kv=0.240 kwhrated=500.000 kwhstored=250.000 state=idling vminpu=0.9001 LimitCurrent=yes kw=0.00
new Storage.DER_646_b_39 phases=2 bus1=tlx_646_b_h_39.2.1 conn=w kva=20.000 kv=0.240 kwhrated=500.000 kwhstored=250.000 state=idling vminpu=0.9001 LimitCurrent=yes kw=0.00
new Storage.DER_692_b_3 phases=2 bus1=tlx_692_b_h_3.1.2 conn=w kva=20.000 kv=0.240 kwhrated=500.000 kwhstored=250.000 state=idling vminpu=0.9001 LimitCurrent=yes kw=0.00
new Storage.DER_692_b_4 phases=2 bus1=tlx_692_b_h_4.2.1 conn=w kva=20.000 kv=0.240 kwhrated=500.000 kwhstored=250.000 state=idling vminpu=0.9001 LimitCurrent=yes kw=0.00
new Storage.DER_684_c_40 phases=2 bus1=tlx_684_c_h_40.2.1 conn=w kva=20.000 kv=0.240 kwhrated=500.000 kwhstored=250.000 state=idling vminpu=0.9001 LimitCurrent=yes kw=0.00
new Storage.DER_692_b_5 phases=2 bus1=tlx_692_b_h_5.1.2 conn=w kva=20.000 kv=0.240 kwhrated=500.000 kwhstored=250.000 state=idling vminpu=0.9001 LimitCurrent=yes kw=0.00
new Storage.DER_692_b_6 phases=2 bus1=tlx_692_b_h_6.1.2 conn=w kva=20.000 kv=0.240 kwhrated=500.000 kwhstored=250.000 state=idling vminpu=0.9001 LimitCurrent=yes kw=0.00
new Storage.DER_692_b_7 phases=2 bus1=tlx_692_b_h_7.1.2 conn=w kva=20.000 kv=0.240 kwhrated=500.000 kwhstored=250.000 state=idling vminpu=0.9001 LimitCurrent=yes kw=0.00
new Storage.DER_692_b_8 phases=2 bus1=tlx_692_b_h_8.2.1 conn=w kva=20.000 kv=0.240 kwhrated=500.000 kwhstored=250.000 state=idling vminpu=0.9001 LimitCurrent=yes kw=0.00
new Storage.DER_692_b_9 phases=2 bus1=tlx_692_b_h_9.1.2 conn=w kva=20.000 kv=0.240 kwhrated=500.000 kwhstored=250.000 state=idling vminpu=0.9001 LimitCurrent=yes kw=0.00
new Storage.DER_646_b_30 phases=2 bus1=tlx_646_b_h_30.2.1 conn=w kva=20.000 kv=0.240 kwhrated=500.000 kwhstored=250.000 state=idling vminpu=0.9001 LimitCurrent=yes kw=0.00
new Storage.DER_692_b_1 phases=2 bus1=tlx_692_b_h_1.1.2 conn=w kva=20.000 kv=0.240 kwhrated=500.000 kwhstored=250.000 state=idling vminpu=0.9001 LimitCurrent=yes kw=0.00
new Storage.DER_692_b_2 phases=2 bus1=tlx_692_b_h_2.2.1 conn=w kva=20.000 kv=0.240 kwhrated=500.000 kwhstored=250.000 state=idling vminpu=0.9001 LimitCurrent=yes kw=0.00
new Storage.DER_646_b_43 phases=2 bus1=tlx_646_b_h_43.2.1 conn=w kva=20.000 kv=0.240 kwhrated=500.000 kwhstored=250.000 state=idling vminpu=0.9001 LimitCurrent=yes kw=0.00
new Storage.DER_646_b_42 phases=2 bus1=tlx_646_b_h_42.2.1 conn=w kva=20.000 kv=0.240 kwhrated=500.000 kwhstored=250.000 state=idling vminpu=0.9001 LimitCurrent=yes kw=0.00
new Storage.DER_646_b_45 phases=2 bus1=tlx_646_b_h_45.1.2 conn=w kva=20.000 kv=0.240 kwhrated=500.000 kwhstored=250.000 state=idling vminpu=0.9001 LimitCurrent=yes kw=0.00
new Storage.DER_646_b_44 phases=2 bus1=tlx_646_b_h_44.1.2 conn=w kva=20.000 kv=0.240 kwhrated=500.000 kwhstored=250.000 state=idling vminpu=0.9001 LimitCurrent=yes kw=0.00
new Storage.DER_646_b_47 phases=2 bus1=tlx_646_b_h_47.1.2 conn=w kva=20.000 kv=0.240 kwhrated=500.000 kwhstored=250.000 state=idling vminpu=0.9001 LimitCurrent=yes kw=0.00
new Storage.DER_692_a_40 phases=2 bus1=tlx_692_a_h_40.2.1 conn=w kva=20.000 kv=0.240 kwhrated=500.000 kwhstored=250.000 state=idling vminpu=0.9001 LimitCurrent=yes kw=0.00
new Storage.DER_646_b_46 phases=2 bus1=tlx_646_b_h_46.2.1 conn=w kva=20.000 kv=0.240 kwhrated=500.000 kwhstored=250.000 state=idling vminpu=0.9001 LimitCurrent=yes kw=0.00
new Storage.DER_646_b_49 phases=2 bus1=tlx_646_b_h_49.2.1 conn=w kva=20.000 kv=0.240 kwhrated=500.000 kwhstored=250.000 state=idling vminpu=0.9001 LimitCurrent=yes kw=0.00
new Storage.DER_646_b_48 phases=2 bus1=tlx_646_b_h_48.1.2 conn=w kva=20.000 kv=0.240 kwhrated=500.000 kwhstored=250.000 state=idling vminpu=0.9001 LimitCurrent=yes kw=0.00
new Storage.DER_692_a_37 phases=2 bus1=tlx_692_a_h_37.2.1 conn=w kva=20.000 kv=0.240 kwhrated=500.000 kwhstored=250.000 state=idling vminpu=0.9001 LimitCurrent=yes kw=0.00
new Storage.DER_692_a_38 phases=2 bus1=tlx_692_a_h_38.2.1 conn=w kva=20.000 kv=0.240 kwhrated=500.000 kwhstored=250.000 state=idling vminpu=0.9001 LimitCurrent=yes kw=0.00
new Storage.DER_646_b_41 phases=2 bus1=tlx_646_b_h_41.2.1 conn=w kva=20.000 kv=0.240 kwhrated=500.000 kwhstored=250.000 state=idling vminpu=0.9001 LimitCurrent=yes kw=0.00
new Storage.DER_692_a_39 phases=2 bus1=tlx_692_a_h_39.1.2 conn=w kva=20.000 kv=0.240 kwhrated=500.000 kwhstored=250.000 state=idling vminpu=0.9001 LimitCurrent=yes kw=0.00
new Storage.DER_646_b_40 phases=2 bus1=tlx_646_b_h_40.2.1 conn=w kva=20.000 kv=0.240 kwhrated=500.000 kwhstored=250.000 state=idling vminpu=0.9001 LimitCurrent=yes kw=0.00
new Storage.DER_646_b_54 phases=2 bus1=tlx_646_b_h_54.2.1 conn=w kva=20.000 kv=0.240 kwhrated=500.000 kwhstored=250.000 state=idling vminpu=0.9001 LimitCurrent=yes kw=0.00
...